/*--------------------------------*- C++ -*----------------------------------*\
| Generated by gen_blockmesh.py — edit that script, not this file.            |
\*---------------------------------------------------------------------------*/
FoamFile
{
    version     2.0;
    format      ascii;
    class       dictionary;
    object      transportProperties;
}
// * * * * * * * * * * * * * * * * * * * * * * * * * * * * * * * * * * * * * //


phases
(
    water1
    {
        transportModel  Newtonian;
        nu              1e-06;
        rho             1000;
    }

    water2
    {
        transportModel  Newtonian;
        nu              1e-06;
        rho             1000;
    }

    water3
    {
        transportModel  Newtonian;
        nu              1e-06;
        rho             1000;
    }

    oil
    {
        transportModel  Newtonian;
        nu              5e-05;
        rho             960;
    }

);

// Water-oil interfacial tension is the real one (50 cSt silicone oil,
// 2% Span 80). Water-water pairs are set to zero: they are the same
// fluid, and any nonzero value would invent a force across the
// laminae and bend the very interface being measured.
sigmas
(
    (water1 water2) 0
    (water1 water3) 0
    (water1 oil) 0.03
    (water2 water3) 0
    (water2 oil) 0.03
    (water3 oil) 0.03
);

// ***************************** //
